LTspice 24.0.9 for Windows
Circuit: * C:\Users\User\OneDrive - University of Cape Town\EEE3088\Project\GitRepo\EEE3088F-Project\Sensor LTSpice\Sensor and Emitter.asc
Start Time: Mon Mar 18 19:33:49 2024
Warning: Multiple definitions of model "2scr375p" Type: BJT
Warning: Multiple definitions of model "bc857b" Type: BJT
Warning: Multiple definitions of model "bc847c" Type: BJT
Warning: Multiple definitions of model "bc847b" Type: BJT
solver = Normal
Maximum thread count: 8
tnom = 27
temp = 27
method = modified trap
Limiting rise time of source v2 to 0.0125
Limiting fall time of source v2 to 0.0125
Direct Newton iteration for .op point succeeded.
Total elapsed time: 0.090 seconds.

